
*****
***** Welcome to the Xyce(TM) Parallel Electronic Simulator
*****
***** This is version Xyce Release 7.10-opensource
***** Date: Fri Mar 06 08:13:25 CET 2026


***** Executing netlist /Users/rennekef/Documents/SchematicEntry/backup/tests/grid-tie/grid-tie-lib/inverter/simulation/schematic.net

***** Reading and parsing netlist...
DEBUG checkIfModelValid: device_type=M, modelType=NMOS, modelLevel=1, isModelLevelValid=1, isModelTypeValid=1, numNodes=4
DEBUG checkIfModelValid: device_type=M, modelType=NMOS, modelLevel=1, isModelLevelValid=1, isModelTypeValid=1, numNodes=4
DEBUG checkIfModelValid: device_type=N, modelType=NPY, modelLevel=1, isModelLevelValid=1, isModelTypeValid=1, numNodes=16
***** Setting up topology...

Netlist warning: Voltage Node (N_3) connected to only 1 device Terminal
Netlist warning: Voltage Node (N_4) connected to only 1 device Terminal
Netlist warning: Voltage Node (N_5) connected to only 1 device Terminal
Netlist warning: Voltage Node (N_6) connected to only 1 device Terminal
Netlist warning: Voltage Node (N_7) connected to only 1 device Terminal
Netlist warning: Voltage Node (N_8) connected to only 1 device Terminal
Netlist warning: Voltage Node (N_9) connected to only 1 device Terminal
Netlist warning: Voltage Node (N_10) connected to only 1 device Terminal
Netlist warning: Voltage Node (N_11) connected to only 1 device Terminal
Netlist warning: Voltage Node (N_12) connected to only 1 device Terminal
Netlist warning: Voltage Node (N_13) connected to only 1 device Terminal
Netlist warning: Voltage Node (N_4) does not have a DC path to ground
Netlist warning: Voltage Node (N_5) does not have a DC path to ground
Netlist warning: Voltage Node (N_6) does not have a DC path to ground
Netlist warning: Voltage Node (N_8) does not have a DC path to ground
Netlist warning: Voltage Node (N_9) does not have a DC path to ground
Netlist warning: Voltage Node (VR) does not have a DC path to ground
Netlist warning: Voltage Node (N_7) does not have a DC path to ground
Netlist warning: Voltage Node (VL) does not have a DC path to ground
Netlist warning: Voltage Node (N_10) does not have a DC path to ground
Netlist warning: Voltage Node (N_11) does not have a DC path to ground
Netlist warning: Voltage Node (N_12) does not have a DC path to ground
Netlist warning: Voltage Node (N_13) does not have a DC path to ground
***** Device Count Summary ...
       C level 1 (Capacitor)                       1
       K level 1 (Linear Mutual Inductor)          1
       M level 1 (MOSFET level 1)                  2
       NPY level 1 (Python Device) (Python Device) 1
       R level 1 (Resistor)                        1
       V level 1 (Independent Voltage Source)      3
       ---------------------------------------------
       Total Devices                               9
***** Setting up matrix structure...
***** Number of Unknowns = 26
***** Initializing...

***** Beginning DC Operating Point Calculation...

***** Beginning Transient Calculation...

***** Percent complete: 1.3107 %
***** Current system time: Fri Mar  6 08:13:25 2026
***** Estimated time to completion:  0 sec.

***** Percent complete: 2.62142 %
***** Current system time: Fri Mar  6 08:13:25 2026
***** Estimated time to completion:  0 sec.

***** Percent complete: 5.24286 %
***** Current system time: Fri Mar  6 08:13:25 2026
***** Estimated time to completion:  0 sec.

***** Percent complete: 10 %
***** Current system time: Fri Mar  6 08:13:25 2026
***** Estimated time to completion:  0 sec.

***** Percent complete: 11.4 %
***** Current system time: Fri Mar  6 08:13:25 2026
***** Estimated time to completion:  0 sec.

***** Percent complete: 12.48 %
***** Current system time: Fri Mar  6 08:13:25 2026
***** Estimated time to completion:  0 sec.

***** Percent complete: 14.4 %
***** Current system time: Fri Mar  6 08:13:25 2026
***** Estimated time to completion:  0 sec.

***** Percent complete: 16.96 %
***** Current system time: Fri Mar  6 08:13:25 2026
***** Estimated time to completion:  0 sec.

***** Percent complete: 18.8 %
***** Current system time: Fri Mar  6 08:13:25 2026
***** Estimated time to completion:  0 sec.

***** Percent complete: 20.336 %
***** Current system time: Fri Mar  6 08:13:25 2026
***** Estimated time to completion:  0 sec.

***** Percent complete: 22.384 %
***** Current system time: Fri Mar  6 08:13:25 2026
***** Estimated time to completion:  0 sec.

***** Percent complete: 25.6 %
***** Current system time: Fri Mar  6 08:13:25 2026
***** Estimated time to completion:  0 sec.

***** Percent complete: 26.8288 %
***** Current system time: Fri Mar  6 08:13:25 2026
***** Estimated time to completion:  0 sec.

***** Percent complete: 28.4672 %
***** Current system time: Fri Mar  6 08:13:25 2026
***** Estimated time to completion:  0 sec.

***** Percent complete: 31.744 %
***** Current system time: Fri Mar  6 08:13:25 2026
***** Estimated time to completion:  0 sec.

***** Percent complete: 38.2976 %
***** Current system time: Fri Mar  6 08:13:25 2026
***** Estimated time to completion:  0 sec.

***** Percent complete: 48.2976 %
***** Current system time: Fri Mar  6 08:13:25 2026
***** Estimated time to completion:  0 sec.

***** Percent complete: 58.2976 %
***** Current system time: Fri Mar  6 08:13:25 2026
***** Estimated time to completion:  0 sec.

***** Percent complete: 68.2976 %
***** Current system time: Fri Mar  6 08:13:25 2026
***** Estimated time to completion:  0 sec.

***** Percent complete: 78.2976 %
***** Current system time: Fri Mar  6 08:13:25 2026
***** Estimated time to completion:  0 sec.

***** Percent complete: 88.2976 %
***** Current system time: Fri Mar  6 08:13:25 2026
***** Estimated time to completion:  0 sec.

***** Percent complete: 98.2976 %
***** Current system time: Fri Mar  6 08:13:25 2026
***** Estimated time to completion:  0 sec.

***** Problem read in and set up time: 0.0722699 seconds
 ***** DCOP time: 0.00237799 seconds.  Breakdown follows:
	Number Successful Steps Taken:		1
	Number Failed Steps Attempted:		0
	Number Jacobians Evaluated:		5
	Number Linear Solves:			5
	Number Failed Linear Solves:		0
	Number Residual Evaluations:		7
	Number Nonlinear Convergence Failures:	0
	Total Residual Load Time:		0.000129461 seconds
	Total Jacobian Load Time:		4.60148e-05 seconds
	Total Linear Solution Time:		0.000335693 seconds

 ***** Transient Stepping time: 0.00784898 seconds.  Breakdown follows:
	Number Successful Steps Taken:		45
	Number Failed Steps Attempted:		0
	Number Jacobians Evaluated:		112
	Number Linear Solves:			112
	Number Failed Linear Solves:		0
	Number Residual Evaluations:		157
	Number Nonlinear Convergence Failures:	0
	Total Residual Load Time:		0.000954628 seconds
	Total Jacobian Load Time:		0.000463247 seconds
	Total Linear Solution Time:		0.00169611 seconds


***** Solution Summary *****
	Number Successful Steps Taken:		46
	Number Failed Steps Attempted:		0
	Number Jacobians Evaluated:		117
	Number Linear Solves:			117
	Number Failed Linear Solves:		0
	Number Residual Evaluations:		164
	Number Nonlinear Convergence Failures:	0
	Total Residual Load Time:		0.00108409 seconds
	Total Jacobian Load Time:		0.000509262 seconds
	Total Linear Solution Time:		0.0020318 seconds


***** Total Simulation Solvers Run Time: 0.0104511 seconds
***** Total Elapsed Run Time:            0.082701 seconds
*****
***** End of Xyce(TM) Simulation
*****

Timing summary of 1 processor
                 Stats                   Count       CPU Time              Wall Time
---------------------------------------- ----- --------------------- ---------------------
Xyce                                         1        0.062 (100.0%)        0.089 (100.0%)
  Analysis                                   1        0.008 (13.25%)        0.010 (11.75%)
    Transient                                1        0.008 (13.22%)        0.010 (11.73%)
      Nonlinear Solve                       46        0.006 ( 9.35%)        0.007 ( 7.46%)
        Residual                           164        0.001 ( 1.93%)        0.001 ( 1.49%)
        Jacobian                           117        0.001 ( 0.95%)        0.001 ( 0.77%)
        Linear Solve                       117        0.002 ( 3.27%)        0.002 ( 2.49%)
      Successful DCOP Steps                  1        0.001 ( 0.87%)        0.001 ( 1.16%)
      Successful Step                       45        0.001 ( 1.54%)        0.002 ( 1.84%)
  Netlist Import                             1        0.046 (74.85%)        0.067 (75.36%)
    Parse Context                            1        0.001 ( 0.82%)        0.001 ( 0.92%)
    Distribute Devices                       1        0.002 ( 3.08%)        0.002 ( 2.52%)
    Verify Devices                           1        0.000 ( 0.02%)        0.000 ( 0.03%)
    Instantiate                              1        0.043 (69.11%)        0.061 (69.40%)
  Late Initialization                        1        0.002 ( 3.69%)        0.004 ( 4.27%)
    Global Indices                           1        0.001 ( 0.82%)        0.002 ( 1.82%)
  Setup Matrix Structure                     1        0.000 ( 0.58%)        0.000 ( 0.56%)

